Networks/MV_SemiUrban/SemiUrban_LinesLaterals1.txt
New Line.Feeder1.1      Bus1=Main_Busbar Bus2=1_1       Length=1    units=m Linecode=Line_MV_185
New Line.Feeder1.2      Bus1=1_1         Bus2=1_2       Length=1    units=m Linecode=Line_MV_185
New Line.Feeder1.3      Bus1=1_2         Bus2=1_3       Length=1    units=m Linecode=Line_MV_185
New Line.Feeder1.4      Bus1=1_3         Bus2=1_4       Length=1    units=m Linecode=Line_MV_185
New Line.Feeder1.5      Bus1=1_4         Bus2=1_5       Length=1    units=m Linecode=Line_MV_185
New Line.Feeder1.6      Bus1=1_5         Bus2=1_6       Length=1    units=m Linecode=Line_MV_185
New Line.Feeder1.7      Bus1=1_6         Bus2=1_7       Length=1    units=m Linecode=Line_MV_185
New Line.Feeder1.8      Bus1=1_7         Bus2=1_8       Length=1    units=m Linecode=Line_MV_185
New Line.Feeder1.9      Bus1=1_8         Bus2=1_9       Length=1    units=m Linecode=Line_MV_185
New Line.Feeder1.10     Bus1=1_9         Bus2=1_10      Length=1    units=m Linecode=Line_MV_185
New Line.Feeder1.11	Bus1=1_10       Bus2=1_11	Length=1    units=m Linecode=Line_MV_185
New Line.Feeder1.12	Bus1=1_11	Bus2=1_12	Length=1    units=m Linecode=Line_MV_185
New Line.Feeder1.13	Bus1=1_12	Bus2=1_13	Length=1	units=m	Linecode=Line_MV_185
New Line.Feeder1.14	Bus1=1_13	Bus2=1_14	Length=1	units=m	Linecode=Line_MV_185
New Line.Feeder1.15	Bus1=1_14	Bus2=1_15	Length=1	units=m	Linecode=Line_MV_185
New Line.Feeder1.16	Bus1=1_15	Bus2=1_16	Length=1	units=m	Linecode=Line_MV_185
New Line.Feeder1.17	Bus1=1_16	Bus2=1_17	Length=1	units=m	Linecode=Line_MV_185
New Line.Feeder1.18	Bus1=1_17	Bus2=1_18	Length=1	units=m	Linecode=Line_MV_185
New Line.Feeder1.19	Bus1=1_18	Bus2=1_19	Length=1	units=m	Linecode=Line_MV_185
New Line.Feeder1.20	Bus1=1_19	Bus2=1_20	Length=1	units=m	Linecode=Line_MV_185
New Line.Feeder1.21	Bus1=1_20	Bus2=1_21	Length=1	units=m	Linecode=Line_MV_185
New Line.Feeder1.22	Bus1=1_21	Bus2=1_22	Length=1	units=m	Linecode=Line_MV_185
New Line.Feeder1.23	Bus1=1_22	Bus2=1_23	Length=1	units=m	Linecode=Line_MV_185
New Line.Feeder1.24	Bus1=1_23	Bus2=1_24	Length=1	units=m	Linecode=Line_MV_185
New Line.Feeder1.25	Bus1=1_24	Bus2=1_25	Length=1	units=m	Linecode=Line_MV_185
New Line.Feeder1.26	Bus1=1_25	Bus2=1_26	Length=1	units=m	Linecode=Line_MV_185
New Line.Feeder1.27	Bus1=1_26	Bus2=1_27	Length=1	units=m	Linecode=Line_MV_185
New Line.Feeder1.28	Bus1=1_27	Bus2=1_28	Length=1	units=m	Linecode=Line_MV_185
New Line.Feeder1.29	Bus1=1_28	Bus2=1_29	Length=1	units=m	Linecode=Line_MV_185
New Line.Feeder1.30	Bus1=1_29	Bus2=1_30	Length=1	units=m	Linecode=Line_MV_185

New Line.Feeder1.31	Bus1=1_30	Bus2=1_31	Length=1	units=m	Linecode=Line_MV_185
New Line.Feeder1.32	Bus1=1_31	Bus2=1_32	Length=1	units=m	Linecode=Line_MV_185
New Line.Feeder1.33	Bus1=1_32	Bus2=1_33	Length=1	units=m	Linecode=Line_MV_185
New Line.Feeder1.34	Bus1=1_33	Bus2=1_34	Length=1	units=m	Linecode=Line_MV_185
New Line.Feeder1.35	Bus1=1_34	Bus2=1_35	Length=1	units=m	Linecode=Line_MV_185

New Line.Feeder1.36	Bus1=1_35	Bus2=1_36	Length=1	units=m	Linecode=Line_MV_185

New Line.Feeder1.37	Bus1=1_36	Bus2=1_37	Length=1	units=m	Linecode=Line_MV_185
New Line.Feeder1.38	Bus1=1_37	Bus2=1_38	Length=1	units=m	Linecode=Line_MV_185
New Line.Feeder1.39	Bus1=1_38	Bus2=1_39	Length=1	units=m	Linecode=Line_MV_185
New Line.Feeder1.40	Bus1=1_39	Bus2=1_40	Length=1	units=m	Linecode=Line_MV_185
New Line.Feeder1.41	Bus1=1_40	Bus2=1_41	Length=1	units=m	Linecode=Line_MV_185
New Line.Feeder1.42	Bus1=1_41	Bus2=1_42	Length=1	units=m	Linecode=Line_MV_185
New Line.Feeder1.43	Bus1=1_42	Bus2=1_43	Length=1	units=m	Linecode=Line_MV_185
New Line.Feeder1.44	Bus1=1_43	Bus2=1_44	Length=1	units=m	Linecode=Line_MV_185
New Line.Feeder1.45	Bus1=1_44	Bus2=1_45	Length=1	units=m	Linecode=Line_MV_185
New Line.Feeder1.46	Bus1=1_45	Bus2=1_46	Length=1	units=m	Linecode=Line_MV_185
New Line.Feeder1.47	Bus1=1_46	Bus2=1_47	Length=1	units=m	Linecode=Line_MV_185

New Line.Feeder1.48	Bus1=1_47	Bus2=1_48	Length=1	units=m	Linecode=Line_MV_185


New Line.Lateral1_start_1	Bus1=1_47	Bus2=1_49	Length=1 units=m	Linecode=Line_MV_95
New Line.Lateral1.50	Bus1=1_49	Bus2=1_50	Length=1	units=m	Linecode=Line_MV_95
New Line.Lateral1.51	Bus1=1_50	Bus2=1_51	Length=1	units=m	Linecode=Line_MV_95
New Line.Lateral1.52	Bus1=1_51	Bus2=1_52	Length=1	units=m	Linecode=Line_MV_95
New Line.Lateral1.53	Bus1=1_52	Bus2=1_53	Length=1	units=m	Linecode=Line_MV_95
New Line.Lateral1.54	Bus1=1_53	Bus2=1_54	Length=1	units=m	Linecode=Line_MV_95
New Line.Lateral1.55	Bus1=1_54	Bus2=1_55	Length=1	units=m	Linecode=Line_MV_95
New Line.Lateral1.56	Bus1=1_55	Bus2=1_56	Length=1	units=m	Linecode=Line_MV_95
New Line.Lateral1.57	Bus1=1_56	Bus2=1_57	Length=1	units=m	Linecode=Line_MV_95
New Line.Lateral1.58	Bus1=1_57	Bus2=1_58	Length=1	units=m	Linecode=Line_MV_95
New Line.Lateral1.59	Bus1=1_58	Bus2=1_59	Length=1	units=m	Linecode=Line_MV_95
New Line.Lateral1.60	Bus1=1_59	Bus2=1_60	Length=1	units=m	Linecode=Line_MV_95
New Line.Lateral1.61	Bus1=1_60       Bus2=1_61	Length=1        units=m Linecode=Line_MV_95
New Line.Lateral1.62	Bus1=1_61	Bus2=1_62	Length=1	units=m	Linecode=Line_MV_95
New Line.Lateral1.63	Bus1=1_62	Bus2=1_63	Length=1	units=m	Linecode=Line_MV_95
New Line.Lateral1.64	Bus1=1_63	Bus2=1_64	Length=1	units=m	Linecode=Line_MV_95
New Line.Lateral1.65	Bus1=1_64	Bus2=1_65	Length=1	units=m	Linecode=Line_MV_95
New Line.Lateral1.66	Bus1=1_65	Bus2=1_66	Length=1	units=m	Linecode=Line_MV_95
New Line.Lateral1.67	Bus1=1_66	Bus2=1_67	Length=1	units=m	Linecode=Line_MV_95
New Line.Lateral1.68	Bus1=1_67	Bus2=1_68	Length=1	units=m	Linecode=Line_MV_95
New Line.Lateral1.69	Bus1=1_68	Bus2=1_69	Length=1	units=m	Linecode=Line_MV_95
New Line.Lateral1.70	Bus1=1_69	Bus2=1_70	Length=1	units=m	Linecode=Line_MV_95
New Line.Lateral1.71	Bus1=1_70	Bus2=1_71	Length=1	units=m	Linecode=Line_MV_95
New Line.Lateral1.72	Bus1=1_71	Bus2=1_72	Length=1	units=m	Linecode=Line_MV_95
New Line.Lateral1.73	Bus1=1_72	Bus2=1_73	Length=1	units=m	Linecode=Line_MV_95
New Line.Lateral1.74	Bus1=1_73	Bus2=1_74	Length=1	units=m	Linecode=Line_MV_95
New Line.Lateral1.75	Bus1=1_74	Bus2=1_75	Length=1	units=m	Linecode=Line_MV_95
New Line.Lateral1.76	Bus1=1_75	Bus2=1_76	Length=1	units=m	Linecode=Line_MV_95
New Line.Lateral1.77	Bus1=1_76	Bus2=1_77	Length=1	units=m	Linecode=Line_MV_95
New Line.Lateral1.78	Bus1=1_77	Bus2=1_78	Length=1	units=m	Linecode=Line_MV_95
New Line.Lateral1.79	Bus1=1_78	Bus2=1_79	Length=1	units=m	Linecode=Line_MV_95
New Line.Lateral1.80	Bus1=1_79	Bus2=1_80	Length=1	units=m	Linecode=Line_MV_95
New Line.Lateral1.81	Bus1=1_80	Bus2=1_81	Length=1	units=m	Linecode=Line_MV_95
New Line.Lateral1.82	Bus1=1_81	Bus2=1_82	Length=1	units=m	Linecode=Line_MV_95
New Line.Lateral1.83	Bus1=1_82	Bus2=1_83	Length=1	units=m	Linecode=Line_MV_95
New Line.Lateral1.84	Bus1=1_83	Bus2=1_84	Length=1	units=m	Linecode=Line_MV_95
New Line.Lateral1.85	Bus1=1_84	Bus2=1_85	Length=1	units=m	Linecode=Line_MV_95
New Line.Lateral1.86	Bus1=1_85	Bus2=1_86	Length=1	units=m	Linecode=Line_MV_95
New Line.Lateral1.87	Bus1=1_86	Bus2=1_87	Length=1	units=m	Linecode=Line_MV_95
New Line.Lateral1.88	Bus1=1_87	Bus2=1_88	Length=1	units=m	Linecode=Line_MV_95
New Line.Lateral1.89	Bus1=1_88	Bus2=1_89	Length=1	units=m	Linecode=Line_MV_95
New Line.Lateral1.90	Bus1=1_89	Bus2=1_90	Length=1	units=m	Linecode=Line_MV_95 
New Line.Lateral1.91	Bus1=1_90       Bus2=1_91	Length=1        units=m Linecode=Line_MV_95
New Line.Lateral1.92	Bus1=1_91	Bus2=1_92	Length=1	units=m	Linecode=Line_MV_95
New Line.Lateral1.93	Bus1=1_92	Bus2=1_93	Length=1	units=m	Linecode=Line_MV_95
New Line.Lateral1.94	Bus1=1_93	Bus2=1_94	Length=1	units=m	Linecode=Line_MV_95
New Line.Lateral1.95	Bus1=1_94	Bus2=1_95	Length=1	units=m	Linecode=Line_MV_95
New Line.Lateral1.96	Bus1=1_95	Bus2=1_96	Length=1	units=m	Linecode=Line_MV_95
New Line.Lateral1.97	Bus1=1_96       Bus2=1_97	Length=1	units=m	Linecode=Line_MV_95
New Line.Lateral1.98	Bus1=1_97       Bus2=1_98	Length=1	units=m	Linecode=Line_MV_95
New Line.Lateral1.99	Bus1=1_98       Bus2=1_99       Length=1	units=m	Linecode=Line_MV_95
New Line.Lateral1.100	Bus1=1_99       Bus2=1_100      Length=1        units=m Linecode=Line_MV_95
New Line.Lateral1.101	Bus1=1_100      Bus2=1_101      Length=1        units=m Linecode=Line_MV_95
New Line.Lateral1.102	Bus1=1_101      Bus2=1_102      Length=1        units=m Linecode=Line_MV_95
New Line.Lateral1.103	Bus1=1_102      Bus2=1_103      Length=1        units=m Linecode=Line_MV_95
New Line.Lateral1.104	Bus1=1_103      Bus2=1_104      Length=1        units=m Linecode=Line_MV_95

New Line.Lateral1.105	Bus1=1_104      Bus2=1_105      Length=1        units=m Linecode=Line_MV_95
New Line.Lateral1.106	Bus1=1_105 Bus2=1_106 Length=1  units=m Linecode=Line_MV_95
New Line.Lateral1.107	Bus1=1_106 Bus2=1_107 Length=1  units=m Linecode=Line_MV_95
New Line.Lateral1.108	Bus1=1_107 Bus2=1_108 Length=1	units=m	Linecode=Line_MV_95
New Line.Lateral1.109	Bus1=1_108 Bus2=1_109 Length=1	units=m	Linecode=Line_MV_95
New Line.Lateral1.110	Bus1=1_109 Bus2=1_110 Length=1	units=m	Linecode=Line_MV_95
New Line.Lateral1.111	Bus1=1_110 Bus2=1_111 Length=1	units=m	Linecode=Line_MV_95
New Line.Lateral1.112	Bus1=1_111 Bus2=1_112 Length=1	units=m	Linecode=Line_MV_95
New Line.Lateral1.113	Bus1=1_112 Bus2=1_113 Length=1	units=m	Linecode=Line_MV_95
New Line.Lateral1.114	Bus1=1_113 Bus2=1_114 Length=1	units=m	Linecode=Line_MV_95
New Line.Lateral1.115	Bus1=1_114 Bus2=1_115 Length=1	units=m	Linecode=Line_MV_95
New Line.Lateral1.116	Bus1=1_115 Bus2=1_116 Length=1	units=m	Linecode=Line_MV_95
New Line.Lateral1.117	Bus1=1_116 Bus2=1_117 Length=1	units=m	Linecode=Line_MV_95
New Line.Lateral1.118	Bus1=1_117 Bus2=1_118 Length=1	units=m	Linecode=Line_MV_95
New Line.Lateral1.119	Bus1=1_118 Bus2=1_119 Length=1	units=m	Linecode=Line_MV_95
New Line.Lateral1.120	Bus1=1_119 Bus2=1_120 Length=1	units=m	Linecode=Line_MV_95
New Line.Lateral1.121	Bus1=1_120 Bus2=1_121 Length=1  units=m Linecode=Line_MV_95
New Line.Lateral1.122	Bus1=1_121 Bus2=1_122 Length=1	units=m	Linecode=Line_MV_95
New Line.Lateral1.123	Bus1=1_122 Bus2=1_123 Length=1	units=m	Linecode=Line_MV_95
New Line.Lateral1.124	Bus1=1_123 Bus2=1_124 Length=1	units=m	Linecode=Line_MV_95
New Line.Lateral1.125	Bus1=1_124 Bus2=1_125 Length=1	units=m	Linecode=Line_MV_95
New Line.Lateral1.126	Bus1=1_125 Bus2=1_126 Length=1	units=m	Linecode=Line_MV_95
New Line.Lateral1.127	Bus1=1_126 Bus2=1_127 Length=1	units=m	Linecode=Line_MV_95
New Line.Lateral1.128	Bus1=1_127 Bus2=1_128 Length=1	units=m	Linecode=Line_MV_95
New Line.Lateral1.129	Bus1=1_128 Bus2=1_129 Length=1	units=m	Linecode=Line_MV_95
New Line.Lateral1.130	Bus1=1_129 Bus2=1_130 Length=1	units=m	Linecode=Line_MV_95
New Line.Lateral1.131	Bus1=1_130 Bus2=1_131 Length=1	units=m	Linecode=Line_MV_95
New Line.Lateral1.132	Bus1=1_131 Bus2=1_132 Length=1	units=m	Linecode=Line_MV_95
New Line.Lateral1.133	Bus1=1_132 Bus2=1_133 Length=1	units=m	Linecode=Line_MV_95
New Line.Lateral1.134	Bus1=1_133 Bus2=1_134 Length=1	units=m	Linecode=Line_MV_95
New Line.Lateral1.135	Bus1=1_134 Bus2=1_135 Length=1	units=m	Linecode=Line_MV_95
New Line.Lateral1.136	Bus1=1_135 Bus2=1_136 Length=1	units=m	Linecode=Line_MV_95
New Line.Lateral1.137	Bus1=1_136 Bus2=1_137 Length=1	units=m	Linecode=Line_MV_95
New Line.Lateral1.138	Bus1=1_137 Bus2=1_138 Length=1	units=m	Linecode=Line_MV_95
New Line.Lateral1.139	Bus1=1_138 Bus2=1_139 Length=1	units=m	Linecode=Line_MV_95
New Line.Lateral1.140	Bus1=1_139 Bus2=1_140 Length=1	units=m	Linecode=Line_MV_95
New Line.Lateral1.141	Bus1=1_140 Bus2=1_141 Length=1	units=m	Linecode=Line_MV_95

New Line.Lateral1.142	Bus1=1_141 Bus2=1_142 Length=1	units=m	Linecode=Line_MV_95
New Line.Lateral1.143	Bus1=1_142 Bus2=1_143 Length=1	units=m	Linecode=Line_MV_95
New Line.Lateral1.144	Bus1=1_143 Bus2=1_144 Length=1	units=m	Linecode=Line_MV_95
New Line.Lateral1.145	Bus1=1_144 Bus2=1_145 Length=1	units=m	Linecode=Line_MV_95
New Line.Lateral1.146	Bus1=1_145 Bus2=1_146 Length=1	units=m	Linecode=Line_MV_95
New Line.Lateral1.147	Bus1=1_146 Bus2=1_147 Length=1	units=m	Linecode=Line_MV_95
New Line.Lateral1.148	Bus1=1_147 Bus2=1_148 Length=1	units=m	Linecode=Line_MV_95
New Line.Lateral1.149	Bus1=1_148 Bus2=1_149 Length=1	units=m	Linecode=Line_MV_95
New Line.Lateral1.150	Bus1=1_149 Bus2=1_150 Length=1	units=m	Linecode=Line_MV_95
New Line.Lateral1.151	Bus1=1_150 Bus2=1_151 Length=1  units=m Linecode=Line_MV_95
New Line.Lateral1.152	Bus1=1_151 Bus2=1_152 Length=1	units=m	Linecode=Line_MV_95
New Line.Lateral1.153	Bus1=1_152 Bus2=1_153 Length=1	units=m	Linecode=Line_MV_95
New Line.Lateral1.154	Bus1=1_153 Bus2=1_154 Length=1	units=m	Linecode=Line_MV_95
New Line.Lateral1.155	Bus1=1_154 Bus2=1_155 Length=1	units=m	Linecode=Line_MV_95
New Line.Lateral1.156	Bus1=1_155 Bus2=1_156 Length=1	units=m	Linecode=Line_MV_95
New Line.Lateral1.157	Bus1=1_156 Bus2=1_157 Length=1	units=m	Linecode=Line_MV_95
New Line.Lateral1.158	Bus1=1_157 Bus2=1_158 Length=1	units=m	Linecode=Line_MV_95
New Line.Lateral1.159	Bus1=1_158 Bus2=1_159 Length=1	units=m	Linecode=Line_MV_95
New Line.Lateral1.160	Bus1=1_159 Bus2=1_160 Length=1	units=m	Linecode=Line_MV_95
New Line.Lateral1.161	Bus1=1_160 Bus2=1_161 Length=1	units=m	Linecode=Line_MV_95
New Line.Lateral1.162	Bus1=1_161 Bus2=1_162 Length=1	units=m	Linecode=Line_MV_95
New Line.Lateral1.163	Bus1=1_162 Bus2=1_163 Length=1	units=m	Linecode=Line_MV_95
New Line.Lateral1.164	Bus1=1_163 Bus2=1_164 Length=1	units=m	Linecode=Line_MV_95
New Line.Lateral1.165	Bus1=1_164 Bus2=1_165 Length=1	units=m	Linecode=Line_MV_95
New Line.Lateral1.166	Bus1=1_165 Bus2=1_166 Length=1	units=m	Linecode=Line_MV_95
New Line.Lateral1.167	Bus1=1_166 Bus2=1_167 Length=1	units=m	Linecode=Line_MV_95
New Line.Lateral1.168	Bus1=1_167 Bus2=1_168 Length=1	units=m	Linecode=Line_MV_95
New Line.Lateral1.169	Bus1=1_168 Bus2=1_169 Length=1	units=m	Linecode=Line_MV_95
New Line.Lateral1.170	Bus1=1_169 Bus2=1_170 Length=1	units=m	Linecode=Line_MV_95
New Line.Lateral1.171	Bus1=1_170 Bus2=1_171 Length=1	units=m	Linecode=Line_MV_95
New Line.Lateral1.172	Bus1=1_171 Bus2=1_172 Length=1	units=m	Linecode=Line_MV_95
New Line.Lateral1.173	Bus1=1_172 Bus2=1_173 Length=1	units=m	Linecode=Line_MV_95
New Line.Lateral1.174	Bus1=1_173 Bus2=1_174 Length=1	units=m	Linecode=Line_MV_95
New Line.Lateral1.175	Bus1=1_174 Bus2=1_175 Length=1	units=m	Linecode=Line_MV_95

New Line.Lateral1.176	Bus1=1_175 Bus2=1_176 Length=1	units=m	Linecode=Line_MV_95
New Line.Lateral1.177 Bus1=1_176 Bus2=1_177 units=m Linecode=Line_MV_95 Length=1
New Line.Lateral1.178 Bus1=1_177 Bus2=1_178 units=m Linecode=Line_MV_95 Length=1 
New Line.Lateral1.179 Bus1=1_178 Bus2=1_179 units=m Linecode=Line_MV_95 Length=1
New Line.Lateral1.180 Bus1=1_179 Bus2=1_180 units=m Linecode=Line_MV_95 Length=1 
New Line.Lateral1.181 Bus1=1_180 Bus2=1_181 units=m Linecode=Line_MV_95 Length=1 
New Line.Lateral1.182 Bus1=1_181 Bus2=1_182 units=m Linecode=Line_MV_95 Length=1 
New Line.Lateral1.183 Bus1=1_182 Bus2=1_183 units=m Linecode=Line_MV_95 Length=1 
New Line.Lateral1.184 Bus1=1_183 Bus2=1_184 units=m Linecode=Line_MV_95 Length=1 
New Line.Lateral1.185 Bus1=1_184 Bus2=1_185 units=m Linecode=Line_MV_95 Length=1 
New Line.Lateral1.186 Bus1=1_185 Bus2=1_186 units=m Linecode=Line_MV_95 Length=1 
New Line.Lateral1.187 Bus1=1_186 Bus2=1_187 units=m Linecode=Line_MV_95 Length=1 
New Line.Lateral1.188 Bus1=1_187 Bus2=1_188 units=m Linecode=Line_MV_95 Length=1 
New Line.Lateral1.189 Bus1=1_188 Bus2=1_189 units=m Linecode=Line_MV_95 Length=1 
New Line.Lateral1.190 Bus1=1_189 Bus2=1_190 units=m Linecode=Line_MV_95 Length=1 
New Line.Lateral1.191 Bus1=1_190 Bus2=1_191 units=m Linecode=Line_MV_95 Length=1 
New Line.Lateral1.192 Bus1=1_191 Bus2=1_192 units=m Linecode=Line_MV_95 Length=1 
New Line.Lateral1.193 Bus1=1_192 Bus2=1_193 units=m Linecode=Line_MV_95 Length=1 
New Line.Lateral1.194 Bus1=1_193 Bus2=1_194 units=m Linecode=Line_MV_95 Length=1 
New Line.Lateral1.195 Bus1=1_194 Bus2=1_195 units=m Linecode=Line_MV_95 Length=1 
New Line.Lateral1.196 Bus1=1_195 Bus2=1_196 units=m Linecode=Line_MV_95 Length=1 
New Line.Lateral1.197 Bus1=1_196 Bus2=1_197 units=m Linecode=Line_MV_95 Length=1 
New Line.Lateral1.198 Bus1=1_197 Bus2=1_198 units=m Linecode=Line_MV_95 Length=1 
New Line.Lateral1.199 Bus1=1_198 Bus2=1_199 units=m Linecode=Line_MV_95 Length=1 
New Line.Lateral1.200 Bus1=1_199 Bus2=1_200 units=m Linecode=Line_MV_95 Length=1 
New Line.Lateral1.201 Bus1=1_200 Bus2=1_201 units=m Linecode=Line_MV_95 Length=1 
New Line.Lateral1.202 Bus1=1_201 Bus2=1_202 units=m Linecode=Line_MV_95 Length=1 
New Line.Lateral1.203 Bus1=1_202 Bus2=1_203 units=m Linecode=Line_MV_95 Length=1 
New Line.Lateral1.204 Bus1=1_203 Bus2=1_204 units=m Linecode=Line_MV_95 Length=1 
New Line.Lateral1.205 Bus1=1_204 Bus2=1_205 units=m Linecode=Line_MV_95 Length=1 
New Line.Lateral1.206 Bus1=1_205 Bus2=1_206 units=m Linecode=Line_MV_95 Length=1 
New Line.Lateral1.207 Bus1=1_206 Bus2=1_207 units=m Linecode=Line_MV_95 Length=1 
New Line.Lateral1.208 Bus1=1_207 Bus2=1_208 units=m Linecode=Line_MV_95 Length=1 
New Line.Lateral1.209 Bus1=1_208 Bus2=1_209 units=m Linecode=Line_MV_95 Length=1 
New Line.Lateral1.210 Bus1=1_209 Bus2=1_210 units=m Linecode=Line_MV_95 Length=1 
New Line.Lateral1.211 Bus1=1_210 Bus2=1_211 units=m Linecode=Line_MV_95 Length=1 
New Line.Lateral1.212 Bus1=1_211 Bus2=1_212 units=m Linecode=Line_MV_95 Length=1 
New Line.Lateral1.213 Bus1=1_212 Bus2=1_213 units=m Linecode=Line_MV_95 Length=1 
New Line.Lateral1.214 Bus1=1_213 Bus2=1_214 units=m Linecode=Line_MV_95 Length=1 
New Line.Lateral1.215 Bus1=1_214 Bus2=1_215 units=m Linecode=Line_MV_95 Length=1 
New Line.Lateral1.216 Bus1=1_215 Bus2=1_216 units=m Linecode=Line_MV_95 Length=1 
New Line.Lateral1.217 Bus1=1_216 Bus2=1_217 units=m Linecode=Line_MV_95 Length=1 
New Line.Lateral1.218 Bus1=1_217 Bus2=1_218 units=m Linecode=Line_MV_95 Length=1 
New Line.Lateral1.219 Bus1=1_218 Bus2=1_219 units=m Linecode=Line_MV_95 Length=1 
New Line.Lateral1.220 Bus1=1_219 Bus2=1_220 units=m Linecode=Line_MV_95 Length=1 
New Line.Lateral1.221 Bus1=1_220 Bus2=1_221 units=m Linecode=Line_MV_95 Length=1 
New Line.Lateral1.222 Bus1=1_221 Bus2=1_222 units=m Linecode=Line_MV_95 Length=1 
New Line.Lateral1.223 Bus1=1_222 Bus2=1_223 units=m Linecode=Line_MV_95 Length=1 
New Line.Lateral1.224 Bus1=1_223 Bus2=1_224 units=m Linecode=Line_MV_95 Length=1 
New Line.Lateral1.225 Bus1=1_224 Bus2=1_225 units=m Linecode=Line_MV_95 Length=1
New Line.Lateral1.226 Bus1=1_225 Bus2=1_226 units=m Linecode=Line_MV_95 Length=1 
New Line.Lateral1.227 Bus1=1_226 Bus2=1_227 units=m Linecode=Line_MV_95 Length=1 
New Line.Lateral1.228 Bus1=1_227 Bus2=1_228 units=m Linecode=Line_MV_95 Length=1 
New Line.Lateral1.229 Bus1=1_228 Bus2=1_229 units=m Linecode=Line_MV_95 Length=1 
New Line.Lateral1.230 Bus1=1_229 Bus2=1_230 units=m Linecode=Line_MV_95 Length=1 
New Line.Lateral1.231 Bus1=1_230 Bus2=1_231 units=m Linecode=Line_MV_95 Length=1 
New Line.Lateral1.232 Bus1=1_231 Bus2=1_232 units=m Linecode=Line_MV_95 Length=1 
New Line.Lateral1.233 Bus1=1_232 Bus2=1_233 units=m Linecode=Line_MV_95 Length=1 
New Line.Lateral1_end_1 Bus1=1_233 Bus2=1_234 units=m Linecode=Line_MV_95 Length=1


New Line.Feeder1.235 Bus1=1_48 Bus2=1_235 units=m Linecode=Line_MV_185 Length=1 
New Line.Feeder1.236 Bus1=1_235 Bus2=1_236 units=m Linecode=Line_MV_185 Length=1 
New Line.Feeder1.237 Bus1=1_235 Bus2=1_237 units=m Linecode=Line_MV_185 Length=1 
New Line.Feeder1.238 Bus1=1_237 Bus2=1_238 units=m Linecode=Line_MV_185 Length=1 
New Line.Feeder1.239 Bus1=1_238 Bus2=1_239 units=m Linecode=Line_MV_185 Length=1 
New Line.Feeder1.240 Bus1=1_239 Bus2=1_240 units=m Linecode=Line_MV_185 Length=1 
New Line.Feeder1.241 Bus1=1_240 Bus2=1_241 units=m Linecode=Line_MV_185 Length=1 
New Line.Feeder1.242 Bus1=1_241 Bus2=1_242 units=m Linecode=Line_MV_185 Length=1 
New Line.Feeder1.243 Bus1=1_242 Bus2=1_243 units=m Linecode=Line_MV_185 Length=1
New Line.Feeder1.244 Bus1=1_243 Bus2=1_244 units=m Linecode=Line_MV_185 Length=1 
New Line.Feeder1.245 Bus1=1_244 Bus2=1_245 units=m Linecode=Line_MV_185 Length=1 

New Line.Feeder1.246 Bus1=1_245 Bus2=1_246 units=m Linecode=Line_MV_185 Length=1
New Line.Feeder1.247 Bus1=1_246 Bus2=1_247 units=m Linecode=Line_MV_185 Length=1 
New Line.Feeder1.248 Bus1=1_247 Bus2=1_248 units=m Linecode=Line_MV_185 Length=1 
New Line.Feeder1.249 Bus1=1_248 Bus2=1_249 units=m Linecode=Line_MV_185 Length=1 
New Line.Feeder1.250 Bus1=1_249 Bus2=1_250 units=m Linecode=Line_MV_185 Length=1 
New Line.Feeder1.251 Bus1=1_250 Bus2=1_251 units=m Linecode=Line_MV_185 Length=1 
New Line.Feeder1.252 Bus1=1_251 Bus2=1_252 units=m Linecode=Line_MV_185 Length=1 
New Line.Feeder1.253 Bus1=1_252 Bus2=1_253 units=m Linecode=Line_MV_185 Length=1 
New Line.Feeder1.254 Bus1=1_253 Bus2=1_254 units=m Linecode=Line_MV_185 Length=1 
New Line.Feeder1.255 Bus1=1_254 Bus2=1_255 units=m Linecode=Line_MV_185 Length=1 
New Line.Feeder1.256 Bus1=1_255 Bus2=1_256 units=m Linecode=Line_MV_185 Length=1 
New Line.Feeder1.257 Bus1=1_256 Bus2=1_257 units=m Linecode=Line_MV_185 Length=1 
New Line.Feeder1.258 Bus1=1_257 Bus2=1_258 units=m Linecode=Line_MV_185 Length=1 
New Line.Feeder1.259 Bus1=1_258 Bus2=1_259 units=m Linecode=Line_MV_185 Length=1 
New Line.Feeder1.260 Bus1=1_259 Bus2=1_260 units=m Linecode=Line_MV_185 Length=1 
New Line.Feeder1.261 Bus1=1_260 Bus2=1_261 units=m Linecode=Line_MV_185 Length=1 
New Line.Feeder1.262 Bus1=1_261 Bus2=1_262 units=m Linecode=Line_MV_185 Length=1 
New Line.Feeder1.263 Bus1=1_262 Bus2=1_263 units=m Linecode=Line_MV_185 Length=1 
New Line.Feeder1.264 Bus1=1_263 Bus2=1_264 units=m Linecode=Line_MV_185 Length=1 
New Line.Feeder1.265 Bus1=1_264 Bus2=1_265 units=m Linecode=Line_MV_185 Length=1 
New Line.Feeder1.266 Bus1=1_265 Bus2=1_266 units=m Linecode=Line_MV_185 Length=1 
New Line.Feeder1.267 Bus1=1_266 Bus2=1_267 units=m Linecode=Line_MV_185 Length=1 
New Line.Feeder1.268 Bus1=1_267 Bus2=1_268 units=m Linecode=Line_MV_185 Length=1 
New Line.Feeder1.269 Bus1=1_268 Bus2=1_269 units=m Linecode=Line_MV_185 Length=1 
New Line.Feeder1.270 Bus1=1_269 Bus2=1_270 units=m Linecode=Line_MV_185 Length=1
New Line.Feeder1.271 Bus1=1_270 Bus2=1_271 units=m Linecode=Line_MV_185 Length=1 
New Line.Feeder1.272 Bus1=1_271 Bus2=1_272 units=m Linecode=Line_MV_185 Length=1 
New Line.Feeder1.273 Bus1=1_272 Bus2=1_273 units=m Linecode=Line_MV_185 Length=1 
New Line.Feeder1.274 Bus1=1_273 Bus2=1_274 units=m Linecode=Line_MV_185 Length=1 
New Line.Feeder1.275 Bus1=1_274 Bus2=1_275 units=m Linecode=Line_MV_185 Length=1 
New Line.Feeder1.276 Bus1=1_275 Bus2=1_276 units=m Linecode=Line_MV_185 Length=1 
New Line.Feeder1.277 Bus1=1_276 Bus2=1_277 units=m Linecode=Line_MV_185 Length=1
New Line.Feeder1.278 Bus1=1_277 Bus2=1_278 units=m Linecode=Line_MV_185 Length=1 
New Line.Feeder1.279 Bus1=1_278 Bus2=1_279 units=m Linecode=Line_MV_185 Length=1 
New Line.Feeder1.280 Bus1=1_279 Bus2=1_280 units=m Linecode=Line_MV_185 Length=1 
New Line.Feeder1.281 Bus1=1_280 Bus2=1_281 units=m Linecode=Line_MV_185 Length=1 
New Line.Feeder1.282 Bus1=1_281 Bus2=1_282 units=m Linecode=Line_MV_185 Length=1 
New Line.Feeder1.283 Bus1=1_282 Bus2=1_283 units=m Linecode=Line_MV_185 Length=1 
New Line.Feeder1.284 Bus1=1_283 Bus2=1_284 units=m Linecode=Line_MV_185 Length=1 
New Line.Feeder1.285 Bus1=1_284 Bus2=1_285 units=m Linecode=Line_MV_185 Length=1 
New Line.Feeder1.286 Bus1=1_285 Bus2=1_286 units=m Linecode=Line_MV_185 Length=1 
New Line.Feeder1.287 Bus1=1_286 Bus2=1_287 units=m Linecode=Line_MV_185 Length=1 
New Line.Feeder1.288 Bus1=1_287 Bus2=1_288 units=m Linecode=Line_MV_185 Length=1 
New Line.Feeder1.289 Bus1=1_288 Bus2=1_289 units=m Linecode=Line_MV_185 Length=1 
New Line.Feeder1.290 Bus1=1_289 Bus2=1_290 units=m Linecode=Line_MV_185 Length=1 
New Line.Feeder1.291 Bus1=1_290 Bus2=1_291 units=m Linecode=Line_MV_185 Length=1 
New Line.Feeder1.292 Bus1=1_291 Bus2=1_292 units=m Linecode=Line_MV_185 Length=1 
New Line.Feeder1.293 Bus1=1_292 Bus2=1_293 units=m Linecode=Line_MV_185 Length=1 
New Line.Feeder1.294 Bus1=1_293 Bus2=1_294 units=m Linecode=Line_MV_185 Length=1 
New Line.Feeder1.295 Bus1=1_294 Bus2=1_295 units=m Linecode=Line_MV_185 Length=1 
New Line.Feeder1.296 Bus1=1_295 Bus2=1_296 units=m Linecode=Line_MV_185 Length=1 
New Line.Feeder1.297 Bus1=1_296 Bus2=1_297 units=m Linecode=Line_MV_185 Length=1 
New Line.Feeder1.298 Bus1=1_297 Bus2=1_298 units=m Linecode=Line_MV_185 Length=1 
New Line.Feeder1.299 Bus1=1_298 Bus2=1_299 units=m Linecode=Line_MV_185 Length=1 
New Line.Feeder1.300 Bus1=1_299 Bus2=1_300 units=m Linecode=Line_MV_185 Length=1 
New Line.Feeder1.301 Bus1=1_300 Bus2=1_301 units=m Linecode=Line_MV_185 Length=1 
New Line.Feeder1.302 Bus1=1_301 Bus2=1_302 units=m Linecode=Line_MV_185 Length=1 
New Line.Feeder1.303 Bus1=1_302 Bus2=1_303 units=m Linecode=Line_MV_185 Length=1 
New Line.Feeder1.304 Bus1=1_303 Bus2=1_304 units=m Linecode=Line_MV_185 Length=1 
New Line.Feeder1.305 Bus1=1_304 Bus2=1_305 units=m Linecode=Line_MV_185 Length=1 
New Line.Feeder1.306 Bus1=1_305 Bus2=1_306 units=m Linecode=Line_MV_185 Length=1 
New Line.Feeder1.307 Bus1=1_306 Bus2=1_307 units=m Linecode=Line_MV_185 Length=1 
New Line.Feeder1.308 Bus1=1_307 Bus2=1_308 units=m Linecode=Line_MV_185 Length=1 
New Line.Feeder1.309 Bus1=1_308 Bus2=1_309 units=m Linecode=Line_MV_185 Length=1 
New Line.Feeder1.310 Bus1=1_309 Bus2=1_310 units=m Linecode=Line_MV_185 Length=1 
New Line.Feeder1.311 Bus1=1_310 Bus2=1_311 units=m Linecode=Line_MV_185 Length=1 
New Line.Feeder1.312 Bus1=1_311 Bus2=1_312 units=m Linecode=Line_MV_185 Length=1 
New Line.Feeder1.313 Bus1=1_312 Bus2=1_313 units=m Linecode=Line_MV_185 Length=1 
New Line.Feeder1.314 Bus1=1_313 Bus2=1_314 units=m Linecode=Line_MV_185 Length=1 
New Line.Feeder1.315 Bus1=1_314 Bus2=1_315 units=m Linecode=Line_MV_185 Length=1

New Line.Feeder1.316 Bus1=1_315 Bus2=1_316 units=m Linecode=Line_MV_185 Length=1 
New Line.Feeder1.317 Bus1=1_316 Bus2=1_317 units=m Linecode=Line_MV_185 Length=1 
New Line.Feeder1.318 Bus1=1_317 Bus2=1_318 units=m Linecode=Line_MV_185 Length=1 
New Line.Feeder1.319 Bus1=1_318 Bus2=1_319 units=m Linecode=Line_MV_185 Length=1 
New Line.Feeder1.320 Bus1=1_319 Bus2=1_320 units=m Linecode=Line_MV_185 Length=1 
New Line.Feeder1.321 Bus1=1_320 Bus2=1_321 units=m Linecode=Line_MV_185 Length=1 
New Line.Feeder1.322 Bus1=1_321 Bus2=1_322 units=m Linecode=Line_MV_185 Length=1 
New Line.Feeder1.323 Bus1=1_322 Bus2=1_323 units=m Linecode=Line_MV_185 Length=1 
New Line.Feeder1.324 Bus1=1_323 Bus2=1_324 units=m Linecode=Line_MV_185 Length=1 
New Line.Feeder1.325 Bus1=1_324 Bus2=1_325 units=m Linecode=Line_MV_185 Length=1 
New Line.Feeder1.326 Bus1=1_325 Bus2=1_326 units=m Linecode=Line_MV_185 Length=1 
New Line.Feeder1.327 Bus1=1_326 Bus2=1_327 units=m Linecode=Line_MV_185 Length=1 
New Line.Feeder1.328 Bus1=1_327 Bus2=1_328 units=m Linecode=Line_MV_185 Length=1 
New Line.Feeder1.329 Bus1=1_328 Bus2=1_329 units=m Linecode=Line_MV_185 Length=1
 


New Line.Lateral1_start_2 Bus1=1_328 Bus2=1_330 units=m Linecode=Line_MV_95 Length=1
New Line.Lateral1.331 Bus1=1_330 Bus2=1_331 units=m Linecode=Line_MV_95 Length=1 
New Line.Lateral1.332 Bus1=1_331 Bus2=1_332 units=m Linecode=Line_MV_95 Length=1 
New Line.Lateral1.333 Bus1=1_332 Bus2=1_333 units=m Linecode=Line_MV_95 Length=1 
New Line.Lateral1.334 Bus1=1_333 Bus2=1_334 units=m Linecode=Line_MV_95 Length=1
New Line.Lateral1.335 Bus1=1_334 Bus2=1_335 units=m Linecode=Line_MV_95 Length=1 
New Line.Lateral1.336 Bus1=1_335 Bus2=1_336 units=m Linecode=Line_MV_95 Length=1 
New Line.Lateral1.337 Bus1=1_336 Bus2=1_337 units=m Linecode=Line_MV_95 Length=1 
New Line.Lateral1.338 Bus1=1_337 Bus2=1_338 units=m Linecode=Line_MV_95 Length=1 
New Line.Lateral1.339 Bus1=1_338 Bus2=1_339 units=m Linecode=Line_MV_95 Length=1 
New Line.Lateral1.340 Bus1=1_339 Bus2=1_340 units=m Linecode=Line_MV_95 Length=1 
New Line.Lateral1.341 Bus1=1_340 Bus2=1_341 units=m Linecode=Line_MV_95 Length=1 
New Line.Lateral1.342 Bus1=1_341 Bus2=1_342 units=m Linecode=Line_MV_95 Length=1 
New Line.Lateral1.343 Bus1=1_342 Bus2=1_343 units=m Linecode=Line_MV_95 Length=1 
New Line.Lateral1.344 Bus1=1_343 Bus2=1_344 units=m Linecode=Line_MV_95 Length=1 
New Line.Lateral1.345 Bus1=1_344 Bus2=1_345 units=m Linecode=Line_MV_95 Length=1 
New Line.Lateral1.346 Bus1=1_345 Bus2=1_346 units=m Linecode=Line_MV_95 Length=1 
New Line.Lateral1.347 Bus1=1_346 Bus2=1_347 units=m Linecode=Line_MV_95 Length=1 
New Line.Lateral1.348 Bus1=1_347 Bus2=1_348 units=m Linecode=Line_MV_95 Length=1 
New Line.Lateral1.349 Bus1=1_348 Bus2=1_349 units=m Linecode=Line_MV_95 Length=1
New Line.Lateral1.350 Bus1=1_349 Bus2=1_350 units=m Linecode=Line_MV_95 Length=1 
New Line.Lateral1.351 Bus1=1_350 Bus2=1_351 units=m Linecode=Line_MV_95 Length=1 
New Line.Lateral1.352 Bus1=1_351 Bus2=1_352 units=m Linecode=Line_MV_95 Length=1 
New Line.Lateral1.353 Bus1=1_352 Bus2=1_353 units=m Linecode=Line_MV_95 Length=1 
New Line.Lateral1.354 Bus1=1_353 Bus2=1_354 units=m Linecode=Line_MV_95 Length=1 
New Line.Lateral1.355 Bus1=1_354 Bus2=1_355 units=m Linecode=Line_MV_95 Length=1 
New Line.Lateral1.356 Bus1=1_355 Bus2=1_356 units=m Linecode=Line_MV_95 Length=1 
New Line.Lateral1.357 Bus1=1_356 Bus2=1_357 units=m Linecode=Line_MV_95 Length=1 
New Line.Lateral1.358 Bus1=1_357 Bus2=1_358 units=m Linecode=Line_MV_95 Length=1 
New Line.Lateral1.359 Bus1=1_358 Bus2=1_359 units=m Linecode=Line_MV_95 Length=1 
New Line.Lateral1.360 Bus1=1_359 Bus2=1_360 units=m Linecode=Line_MV_95 Length=1 
New Line.Lateral1.361 Bus1=1_360 Bus2=1_361 units=m Linecode=Line_MV_95 Length=1 
New Line.Lateral1.362 Bus1=1_361 Bus2=1_362 units=m Linecode=Line_MV_95 Length=1 
New Line.Lateral1.363 Bus1=1_362 Bus2=1_363 units=m Linecode=Line_MV_95 Length=1
New Line.Lateral1.364 Bus1=1_363 Bus2=1_364 units=m Linecode=Line_MV_95 Length=1 
New Line.Lateral1.365 Bus1=1_364 Bus2=1_365 units=m Linecode=Line_MV_95 Length=1 
New Line.Lateral1.366 Bus1=1_365 Bus2=1_366 units=m Linecode=Line_MV_95 Length=1 
New Line.Lateral1.367 Bus1=1_366 Bus2=1_367 units=m Linecode=Line_MV_95 Length=1 

New Line.Lateral1.368 Bus1=1_367 Bus2=1_368 units=m Linecode=Line_MV_95 Length=1 
New Line.Lateral1.369 Bus1=1_368 Bus2=1_369 units=m Linecode=Line_MV_95 Length=1 
New Line.Lateral1.370 Bus1=1_369 Bus2=1_370 units=m Linecode=Line_MV_95 Length=1 
New Line.Lateral1.371 Bus1=1_370 Bus2=1_371 units=m Linecode=Line_MV_95 Length=1 
New Line.Lateral1.372 Bus1=1_371 Bus2=1_372 units=m Linecode=Line_MV_95 Length=1 
New Line.Lateral1.373 Bus1=1_372 Bus2=1_373 units=m Linecode=Line_MV_95 Length=1 
New Line.Lateral1.374 Bus1=1_373 Bus2=1_374 units=m Linecode=Line_MV_95 Length=1 
New Line.Lateral1.375 Bus1=1_374 Bus2=1_375 units=m Linecode=Line_MV_95 Length=1 
New Line.Lateral1.376 Bus1=1_375 Bus2=1_376 units=m Linecode=Line_MV_95 Length=1 
New Line.Lateral1.377 Bus1=1_376 Bus2=1_377 units=m Linecode=Line_MV_95 Length=1 
New Line.Lateral1.378 Bus1=1_377 Bus2=1_378 units=m Linecode=Line_MV_95 Length=1 
New Line.Lateral1.379 Bus1=1_378 Bus2=1_379 units=m Linecode=Line_MV_95 Length=1 
New Line.Lateral1.380 Bus1=1_379 Bus2=1_380 units=m Linecode=Line_MV_95 Length=1 
New Line.Lateral1.381 Bus1=1_380 Bus2=1_381 units=m Linecode=Line_MV_95 Length=1 
New Line.Lateral1.382 Bus1=1_381 Bus2=1_382 units=m Linecode=Line_MV_95 Length=1 
New Line.Lateral1.383 Bus1=1_382 Bus2=1_383 units=m Linecode=Line_MV_95 Length=1 
New Line.Lateral1.384 Bus1=1_383 Bus2=1_384 units=m Linecode=Line_MV_95 Length=1

New Line.Lateral1.385 Bus1=1_384 Bus2=1_385 units=m Linecode=Line_MV_95 Length=1 
New Line.Lateral1.386 Bus1=1_385 Bus2=1_386 units=m Linecode=Line_MV_95 Length=1 
New Line.Lateral1.387 Bus1=1_386 Bus2=1_387 units=m Linecode=Line_MV_95 Length=1 
New Line.Lateral1.388 Bus1=1_387 Bus2=1_388 units=m Linecode=Line_MV_95 Length=1 
New Line.Lateral1.389 Bus1=1_388 Bus2=1_389 units=m Linecode=Line_MV_95 Length=1 
New Line.Lateral1.390 Bus1=1_389 Bus2=1_390 units=m Linecode=Line_MV_95 Length=1 
New Line.Lateral1.391 Bus1=1_390 Bus2=1_391 units=m Linecode=Line_MV_95 Length=1 
New Line.Lateral1.392 Bus1=1_391 Bus2=1_392 units=m Linecode=Line_MV_95 Length=1 
New Line.Lateral1.393 Bus1=1_392 Bus2=1_393 units=m Linecode=Line_MV_95 Length=1 
New Line.Lateral1.394 Bus1=1_393 Bus2=1_394 units=m Linecode=Line_MV_95 Length=1 
New Line.Lateral1.395 Bus1=1_394 Bus2=1_395 units=m Linecode=Line_MV_95 Length=1 
New Line.Lateral1.396 Bus1=1_395 Bus2=1_396 units=m Linecode=Line_MV_95 Length=1 
New Line.Lateral1.397 Bus1=1_396 Bus2=1_397 units=m Linecode=Line_MV_95 Length=1
New Line.Lateral1.398 Bus1=1_397 Bus2=1_398 units=m Linecode=Line_MV_95 Length=1 
New Line.Lateral1.399 Bus1=1_398 Bus2=1_399 units=m Linecode=Line_MV_95 Length=1 
New Line.Lateral1.400 Bus1=1_399 Bus2=1_400 units=m Linecode=Line_MV_95 Length=1 
New Line.Lateral1.401 Bus1=1_400 Bus2=1_401 units=m Linecode=Line_MV_95 Length=1 
New Line.Lateral1.402 Bus1=1_401 Bus2=1_402 units=m Linecode=Line_MV_95 Length=1 
New Line.Lateral1.403 Bus1=1_402 Bus2=1_403 units=m Linecode=Line_MV_95 Length=1 
New Line.Lateral1.404 Bus1=1_403 Bus2=1_404 units=m Linecode=Line_MV_95 Length=1 
New Line.Lateral1.405 Bus1=1_404 Bus2=1_405 units=m Linecode=Line_MV_95 Length=1 
New Line.Lateral1.406 Bus1=1_405 Bus2=1_406 units=m Linecode=Line_MV_95 Length=1 
New Line.Lateral1.407 Bus1=1_406 Bus2=1_407 units=m Linecode=Line_MV_95 Length=1 
New Line.Lateral1.408 Bus1=1_407 Bus2=1_408 units=m Linecode=Line_MV_95 Length=1 
New Line.Lateral1.409 Bus1=1_408 Bus2=1_409 units=m Linecode=Line_MV_95 Length=1 
New Line.Lateral1.410 Bus1=1_409 Bus2=1_410 units=m Linecode=Line_MV_95 Length=1 
New Line.Lateral1.411 Bus1=1_410 Bus2=1_411 units=m Linecode=Line_MV_95 Length=1 
New Line.Lateral1.412 Bus1=1_411 Bus2=1_412 units=m Linecode=Line_MV_95 Length=1 
New Line.Lateral1.413 Bus1=1_412 Bus2=1_413 units=m Linecode=Line_MV_95 Length=1 
New Line.Lateral1.414 Bus1=1_413 Bus2=1_414 units=m Linecode=Line_MV_95 Length=1 
New Line.Lateral1.415 Bus1=1_414 Bus2=1_415 units=m Linecode=Line_MV_95 Length=1 
New Line.Lateral1.416 Bus1=1_415 Bus2=1_416 units=m Linecode=Line_MV_95 Length=1 
New Line.Lateral1.417 Bus1=1_416 Bus2=1_417 units=m Linecode=Line_MV_95 Length=1
New Line.Lateral1.418 Bus1=1_417 Bus2=1_418 units=m Linecode=Line_MV_95 Length=1 
New Line.Lateral1.419 Bus1=1_418 Bus2=1_419 units=m Linecode=Line_MV_95 Length=1 
New Line.Lateral1.420 Bus1=1_419 Bus2=1_420 units=m Linecode=Line_MV_95 Length=1 
New Line.Lateral1.421 Bus1=1_420 Bus2=1_421 units=m Linecode=Line_MV_95 Length=1 
New Line.Lateral1.422 Bus1=1_421 Bus2=1_422 units=m Linecode=Line_MV_95 Length=1 
New Line.Lateral1.423 Bus1=1_422 Bus2=1_423 units=m Linecode=Line_MV_95 Length=1 
New Line.Lateral1.424 Bus1=1_423 Bus2=1_424 units=m Linecode=Line_MV_95 Length=1

New Line.Lateral1.425 Bus1=1_424 Bus2=1_425 units=m Linecode=Line_MV_95 Length=1 
New Line.Lateral1.426 Bus1=1_425 Bus2=1_426 units=m Linecode=Line_MV_95 Length=1 
New Line.Lateral1.427 Bus1=1_426 Bus2=1_427 units=m Linecode=Line_MV_95 Length=1 
New Line.Lateral1.428 Bus1=1_427 Bus2=1_428 units=m Linecode=Line_MV_95 Length=1 
New Line.Lateral1.429 Bus1=1_428 Bus2=1_439 units=m Linecode=Line_MV_95 Length=1 
New Line.Lateral1.430 Bus1=1_429 Bus2=1_430 units=m Linecode=Line_MV_95 Length=1 
New Line.Lateral1.431 Bus1=1_430 Bus2=1_431 units=m Linecode=Line_MV_95 Length=1 
New Line.Lateral1.432 Bus1=1_431 Bus2=1_432 units=m Linecode=Line_MV_95 Length=1 
New Line.Lateral1.433 Bus1=1_432 Bus2=1_433 units=m Linecode=Line_MV_95 Length=1 
New Line.Lateral1.434 Bus1=1_433 Bus2=1_434 units=m Linecode=Line_MV_95 Length=1 
New Line.Lateral1.435 Bus1=1_434 Bus2=1_435 units=m Linecode=Line_MV_95 Length=1 
New Line.Lateral1.436 Bus1=1_435 Bus2=1_436 units=m Linecode=Line_MV_95 Length=1 
New Line.Lateral1.437 Bus1=1_436 Bus2=1_437 units=m Linecode=Line_MV_95 Length=1 
New Line.Lateral1.438 Bus1=1_437 Bus2=1_438 units=m Linecode=Line_MV_95 Length=1 
New Line.Lateral1.439 Bus1=1_438 Bus2=1_439 units=m Linecode=Line_MV_95 Length=1 
New Line.Lateral1.440 Bus1=1_439 Bus2=1_440 units=m Linecode=Line_MV_95 Length=1 
New Line.Lateral1.441 Bus1=1_440 Bus2=1_441 units=m Linecode=Line_MV_95 Length=1 
New Line.Lateral1.442 Bus1=1_441 Bus2=1_442 units=m Linecode=Line_MV_95 Length=1 
New Line.Lateral1.443 Bus1=1_442 Bus2=1_443 units=m Linecode=Line_MV_95 Length=1 
New Line.Lateral1.444 Bus1=1_443 Bus2=1_444 units=m Linecode=Line_MV_95 Length=1 
New Line.Lateral1.445 Bus1=1_444 Bus2=1_445 units=m Linecode=Line_MV_95 Length=1 
New Line.Lateral1.446 Bus1=1_445 Bus2=1_446 units=m Linecode=Line_MV_95 Length=1 
New Line.Lateral1.447 Bus1=1_446 Bus2=1_447 units=m Linecode=Line_MV_95 Length=1 
New Line.Lateral1.448 Bus1=1_447 Bus2=1_448 units=m Linecode=Line_MV_95 Length=1 
New Line.Lateral1.449 Bus1=1_448 Bus2=1_449 units=m Linecode=Line_MV_95 Length=1 
New Line.Lateral1.450 Bus1=1_449 Bus2=1_450 units=m Linecode=Line_MV_95 Length=1 
New Line.Lateral1.451 Bus1=1_450 Bus2=1_451 units=m Linecode=Line_MV_95 Length=1 
New Line.Lateral1.452 Bus1=1_451 Bus2=1_452 units=m Linecode=Line_MV_95 Length=1 
New Line.Lateral1.453 Bus1=1_452 Bus2=1_453 units=m Linecode=Line_MV_95 Length=1 
New Line.Lateral1.454 Bus1=1_453 Bus2=1_454 units=m Linecode=Line_MV_95 Length=1
New Line.Lateral1.455 Bus1=1_454 Bus2=1_455 units=m Linecode=Line_MV_95 Length=1 
New Line.Lateral1.456 Bus1=1_455 Bus2=1_456 units=m Linecode=Line_MV_95 Length=1 
New Line.Lateral1.457 Bus1=1_456 Bus2=1_457 units=m Linecode=Line_MV_95 Length=1
New Line.Lateral1.458 Bus1=1_457 Bus2=1_458 units=m Linecode=Line_MV_95 Length=1 
New Line.Lateral1.459 Bus1=1_458 Bus2=1_459 units=m Linecode=Line_MV_95 Length=1 
New Line.Lateral1.460 Bus1=1_459 Bus2=1_460 units=m Linecode=Line_MV_95 Length=1 
New Line.Lateral1.461 Bus1=1_460 Bus2=1_461 units=m Linecode=Line_MV_95 Length=1 
New Line.Lateral1.462 Bus1=1_461 Bus2=1_462 units=m Linecode=Line_MV_95 Length=1 
New Line.Lateral1.463 Bus1=1_462 Bus2=1_463 units=m Linecode=Line_MV_95 Length=1 
New Line.Lateral1.464 Bus1=1_463 Bus2=1_464 units=m Linecode=Line_MV_95 Length=1 
New Line.Lateral1.465 Bus1=1_464 Bus2=1_465 units=m Linecode=Line_MV_95 Length=1 
New Line.Lateral1.466 Bus1=1_465 Bus2=1_466 units=m Linecode=Line_MV_95 Length=1 
New Line.Lateral1.467 Bus1=1_466 Bus2=1_467 units=m Linecode=Line_MV_95 Length=1 
New Line.Lateral1.468 Bus1=1_467 Bus2=1_468 units=m Linecode=Line_MV_95 Length=1
New Line.Lateral1.469 Bus1=1_468 Bus2=1_469 units=m Linecode=Line_MV_95 Length=1 
New Line.Lateral1.470 Bus1=1_469 Bus2=1_470 units=m Linecode=Line_MV_95 Length=1 
New Line.Lateral1.471 Bus1=1_470 Bus2=1_471 units=m Linecode=Line_MV_95 Length=1 
New Line.Lateral1.472 Bus1=1_471 Bus2=1_472 units=m Linecode=Line_MV_95 Length=1 
New Line.Lateral1.473 Bus1=1_472 Bus2=1_473 units=m Linecode=Line_MV_95 Length=1 
New Line.Lateral1.474 Bus1=1_473 Bus2=1_474 units=m Linecode=Line_MV_95 Length=1 
New Line.Lateral1.475 Bus1=1_474 Bus2=1_475 units=m Linecode=Line_MV_95 Length=1 
New Line.Lateral1.476 Bus1=1_475 Bus2=1_476 units=m Linecode=Line_MV_95 Length=1 
New Line.Lateral1.477 Bus1=1_476 Bus2=1_477 units=m Linecode=Line_MV_95 Length=1
New Line.Lateral1.478 Bus1=1_477 Bus2=1_478 units=m Linecode=Line_MV_95 Length=1 
New Line.Lateral1.479 Bus1=1_478 Bus2=1_479 units=m Linecode=Line_MV_95 Length=1 
New Line.Lateral1.480 Bus1=1_479 Bus2=1_480 units=m Linecode=Line_MV_95 Length=1 
New Line.Lateral1.481 Bus1=1_480 Bus2=1_481 units=m Linecode=Line_MV_95 Length=1 
New Line.Lateral1.482 Bus1=1_481 Bus2=1_482 units=m Linecode=Line_MV_95 Length=1 
New Line.Lateral1.483 Bus1=1_482 Bus2=1_483 units=m Linecode=Line_MV_95 Length=1 
New Line.Lateral1.484 Bus1=1_483 Bus2=1_484 units=m Linecode=Line_MV_95 Length=1 
New Line.Lateral1.485 Bus1=1_484 Bus2=1_485 units=m Linecode=Line_MV_95 Length=1 
New Line.Lateral1.486 Bus1=1_485 Bus2=1_486 units=m Linecode=Line_MV_95 Length=1 
New Line.Lateral1.487 Bus1=1_486 Bus2=1_487 units=m Linecode=Line_MV_95 Length=1 
New Line.Lateral1.488 Bus1=1_487 Bus2=1_488 units=m Linecode=Line_MV_95 Length=1 
New Line.Lateral1.489 Bus1=1_488 Bus2=1_489 units=m Linecode=Line_MV_95 Length=1 
New Line.Lateral1.490 Bus1=1_489 Bus2=1_490 units=m Linecode=Line_MV_95 Length=1 
New Line.Lateral1.491 Bus1=1_490 Bus2=1_491 units=m Linecode=Line_MV_95 Length=1 
New Line.Lateral1.492 Bus1=1_491 Bus2=1_492 units=m Linecode=Line_MV_95 Length=1 
New Line.Lateral1.493 Bus1=1_492 Bus2=1_493 units=m Linecode=Line_MV_95 Length=1 
New Line.Lateral1.494 Bus1=1_493 Bus2=1_494 units=m Linecode=Line_MV_95 Length=1 
New Line.Lateral1.495 Bus1=1_494 Bus2=1_495 units=m Linecode=Line_MV_95 Length=1 
New Line.Lateral1.496 Bus1=1_495 Bus2=1_496 units=m Linecode=Line_MV_95 Length=1 
New Line.Lateral1.497 Bus1=1_496 Bus2=1_497 units=m Linecode=Line_MV_95 Length=1
New Line.Lateral1.498 Bus1=1_497 Bus2=1_498 units=m Linecode=Line_MV_95 Length=1 
New Line.Lateral1.499 Bus1=1_498 Bus2=1_499 units=m Linecode=Line_MV_95 Length=1 
New Line.Lateral1.500 Bus1=1_499 Bus2=1_500 units=m Linecode=Line_MV_95 Length=1 
New Line.Lateral1.501 Bus1=1_500 Bus2=1_501 units=m Linecode=Line_MV_95 Length=1 
New Line.Lateral1.502 Bus1=1_501 Bus2=1_502 units=m Linecode=Line_MV_95 Length=1 
New Line.Lateral1.503 Bus1=1_502 Bus2=1_503 units=m Linecode=Line_MV_95 Length=1 
New Line.Lateral1.504 Bus1=1_503 Bus2=1_504 units=m Linecode=Line_MV_95 Length=1 
New Line.Lateral1.505 Bus1=1_504 Bus2=1_505 units=m Linecode=Line_MV_95 Length=1 
New Line.Lateral1.506 Bus1=1_505 Bus2=1_506 units=m Linecode=Line_MV_95 Length=1 
New Line.Lateral1.507 Bus1=1_506 Bus2=1_507 units=m Linecode=Line_MV_95 Length=1 
New Line.Lateral1.508 Bus1=1_507 Bus2=1_508 units=m Linecode=Line_MV_95 Length=1 
New Line.Lateral1.509 Bus1=1_508 Bus2=1_509 units=m Linecode=Line_MV_95 Length=1 
New Line.Lateral1.510 Bus1=1_509 Bus2=1_510 units=m Linecode=Line_MV_95 Length=1 
New Line.Lateral1.511 Bus1=1_510 Bus2=1_511 units=m Linecode=Line_MV_95 Length=1 
New Line.Lateral1.512 Bus1=1_511 Bus2=1_512 units=m Linecode=Line_MV_95 Length=1
New Line.Lateral1.513 Bus1=1_512 Bus2=1_513 units=m Linecode=Line_MV_95 Length=1 
New Line.Lateral1.514 Bus1=1_513 Bus2=1_514 units=m Linecode=Line_MV_95 Length=1 
New Line.Lateral1_end_2 Bus1=1_514 Bus2=1_515 units=m Linecode=Line_MV_95 Length=1



New Line.Feeder1.516 Bus1=1_329 Bus2=1_516 units=m Linecode=Line_MV_185 Length=1 
New Line.Feeder1.517 Bus1=1_516 Bus2=1_517 units=m Linecode=Line_MV_185 Length=1 
New Line.Feeder1.518 Bus1=1_517 Bus2=1_518 units=m Linecode=Line_MV_185 Length=1 
New Line.Feeder1.519 Bus1=1_518 Bus2=1_519 units=m Linecode=Line_MV_185 Length=1  
New Line.Feeder1.520 Bus1=1_519 Bus2=1_520 units=m Linecode=Line_MV_185 Length=1
New Line.Feeder1.521 Bus1=1_520 Bus2=1_521 units=m Linecode=Line_MV_185 Length=1 
New Line.Feeder1.522 Bus1=1_521 Bus2=1_522 units=m Linecode=Line_MV_185 Length=1 
New Line.Feeder1.523 Bus1=1_522 Bus2=1_523 units=m Linecode=Line_MV_185 Length=1 
New Line.Feeder1.524 Bus1=1_523 Bus2=1_524 units=m Linecode=Line_MV_185 Length=1 
New Line.Feeder1.525 Bus1=1_524 Bus2=1_525 units=m Linecode=Line_MV_185 Length=1 
New Line.Feeder1.526 Bus1=1_525 Bus2=1_526 units=m Linecode=Line_MV_185 Length=1 
New Line.Feeder1.527 Bus1=1_526 Bus2=1_527 units=m Linecode=Line_MV_185 Length=1 
New Line.Feeder1.528 Bus1=1_527 Bus2=1_528 units=m Linecode=Line_MV_185 Length=1 
New Line.Feeder1.529 Bus1=1_528 Bus2=1_529 units=m Linecode=Line_MV_185 Length=1 
New Line.Feeder1.530 Bus1=1_529 Bus2=1_530 units=m Linecode=Line_MV_185 Length=1 
New Line.Feeder1.531 Bus1=1_530 Bus2=1_531 units=m Linecode=Line_MV_185 Length=1
New Line.Feeder1.532 Bus1=1_531 Bus2=1_532 units=m Linecode=Line_MV_185 Length=1 
New Line.Feeder1.533 Bus1=1_532 Bus2=1_533 units=m Linecode=Line_MV_185 Length=1 
New Line.Feeder1.534 Bus1=1_533 Bus2=1_534 units=m Linecode=Line_MV_185 Length=1 
New Line.Feeder1.535 Bus1=1_534 Bus2=1_535 units=m Linecode=Line_MV_185 Length=1 
New Line.Feeder1.536 Bus1=1_535 Bus2=1_536 units=m Linecode=Line_MV_185 Length=1 
New Line.Feeder1.537 Bus1=1_536 Bus2=1_537 units=m Linecode=Line_MV_185 Length=1 
New Line.Feeder1.538 Bus1=1_537 Bus2=1_538 units=m Linecode=Line_MV_185 Length=1 
New Line.Feeder1.539 Bus1=1_538 Bus2=1_539 units=m Linecode=Line_MV_185 Length=1 
New Line.Feeder1.540 Bus1=1_539 Bus2=1_540 units=m Linecode=Line_MV_185 Length=1 
New Line.Feeder1.541 Bus1=1_540 Bus2=1_541 units=m Linecode=Line_MV_185 Length=1 
New Line.Feeder1.542 Bus1=1_541 Bus2=1_542 units=m Linecode=Line_MV_185 Length=1
New Line.Feeder1.543 Bus1=1_542 Bus2=1_543 units=m Linecode=Line_MV_185 Length=1 
New Line.Feeder1.544 Bus1=1_543 Bus2=1_544 units=m Linecode=Line_MV_185 Length=1 
New Line.Feeder1.545 Bus1=1_544 Bus2=1_545 units=m Linecode=Line_MV_185 Length=1 
New Line.Feeder1.546 Bus1=1_545 Bus2=1_546 units=m Linecode=Line_MV_185 Length=1 
New Line.Feeder1.547 Bus1=1_546 Bus2=1_547 units=m Linecode=Line_MV_185 Length=1 
New Line.Feeder1.548 Bus1=1_547 Bus2=1_548 units=m Linecode=Line_MV_185 Length=1 
New Line.Feeder1.549 Bus1=1_548 Bus2=1_549 units=m Linecode=Line_MV_185 Length=1 
New Line.Feeder1.550 Bus1=1_549 Bus2=1_550 units=m Linecode=Line_MV_185 Length=1
New Line.Feeder1.551 Bus1=1_550 Bus2=1_551 units=m Linecode=Line_MV_185 Length=1
New Line.Feeder1.552 Bus1=1_551 Bus2=1_552 units=m Linecode=Line_MV_185 Length=1 
New Line.Feeder1.553 Bus1=1_552 Bus2=1_553 units=m Linecode=Line_MV_185 Length=1 
New Line.Feeder1.554 Bus1=1_553 Bus2=1_554 units=m Linecode=Line_MV_185 Length=1 
New Line.Feeder1.555 Bus1=1_554 Bus2=1_555 units=m Linecode=Line_MV_185 Length=1 
New Line.Feeder1.556 Bus1=1_555 Bus2=1_556 units=m Linecode=Line_MV_185 Length=1 
New Line.Feeder1.557 Bus1=1_556 Bus2=1_557 units=m Linecode=Line_MV_185 Length=1 
New Line.Feeder1.558 Bus1=1_557 Bus2=1_558 units=m Linecode=Line_MV_185 Length=1 
New Line.Feeder1.559 Bus1=1_558 Bus2=1_559 units=m Linecode=Line_MV_185 Length=1 
New Line.Feeder1.560 Bus1=1_559 Bus2=1_560 units=m Linecode=Line_MV_185 Length=1
New Line.Feeder1.561 Bus1=1_560 Bus2=1_561 units=m Linecode=Line_MV_185 Length=1 
New Line.Feeder1.562 Bus1=1_561 Bus2=1_562 units=m Linecode=Line_MV_185 Length=1 
New Line.Feeder1.563 Bus1=1_562 Bus2=1_563 units=m Linecode=Line_MV_185 Length=1 
New Line.Feeder1.564 Bus1=1_563 Bus2=1_564 units=m Linecode=Line_MV_185 Length=1 
New Line.Feeder1.565 Bus1=1_564 Bus2=1_565 units=m Linecode=Line_MV_185 Length=1 
New Line.Feeder1.566 Bus1=1_565 Bus2=1_566 units=m Linecode=Line_MV_185 Length=1 
New Line.Feeder1.567 Bus1=1_566 Bus2=1_567 units=m Linecode=Line_MV_185 Length=1 
New Line.Feeder1.568 Bus1=1_567 Bus2=1_568 units=m Linecode=Line_MV_185 Length=1 
New Line.Feeder1.569 Bus1=1_568 Bus2=1_569 units=m Linecode=Line_MV_185 Length=1  
New Line.Feeder1.570 Bus1=1_569 Bus2=1_570 units=m Linecode=Line_MV_185 Length=1
New Line.Feeder1.571 Bus1=1_570 Bus2=1_571 units=m Linecode=Line_MV_185 Length=1 
New Line.Feeder1.572 Bus1=1_571 Bus2=1_572 units=m Linecode=Line_MV_185 Length=1 
New Line.Feeder1.573 Bus1=1_572 Bus2=1_573 units=m Linecode=Line_MV_185 Length=1 
New Line.Feeder1.574 Bus1=1_573 Bus2=1_574 units=m Linecode=Line_MV_185 Length=1 
New Line.Feeder1.575 Bus1=1_574 Bus2=1_575 units=m Linecode=Line_MV_185 Length=1 
New Line.Feeder1.576 Bus1=1_575 Bus2=1_576 units=m Linecode=Line_MV_185 Length=1 
New Line.Feeder1.577 Bus1=1_576 Bus2=1_577 units=m Linecode=Line_MV_185 Length=1 
New Line.Feeder1.578 Bus1=1_577 Bus2=1_578 units=m Linecode=Line_MV_185 Length=1 
New Line.Feeder1.579 Bus1=1_578 Bus2=1_579 units=m Linecode=Line_MV_185 Length=1 
New Line.Feeder1.580 Bus1=1_579 Bus2=1_580 units=m Linecode=Line_MV_185 Length=1
New Line.Feeder1.581 Bus1=1_580 Bus2=1_581 units=m Linecode=Line_MV_185 Length=1
New Line.Feeder1.582 Bus1=1_581 Bus2=1_582 units=m Linecode=Line_MV_185 Length=1 
New Line.Feeder1.583 Bus1=1_582 Bus2=1_583 units=m Linecode=Line_MV_185 Length=1 
New Line.Feeder1.584 Bus1=1_583 Bus2=1_584 units=m Linecode=Line_MV_185 Length=1 
New Line.Feeder1.585 Bus1=1_584 Bus2=1_585 units=m Linecode=Line_MV_185 Length=1 
New Line.Feeder1.586 Bus1=1_585 Bus2=1_586 units=m Linecode=Line_MV_185 Length=1 
New Line.Feeder1.587 Bus1=1_586 Bus2=1_587 units=m Linecode=Line_MV_185 Length=1
New Line.Feeder1.588 Bus1=1_587 Bus2=1_588 units=m Linecode=Line_MV_185 Length=1 
New Line.Feeder1.589 Bus1=1_588 Bus2=1_589 units=m Linecode=Line_MV_185 Length=1  
New Line.Feeder1.590 Bus1=1_589 Bus2=1_590 units=m Linecode=Line_MV_185 Length=1
New Line.Feeder1.591 Bus1=1_590 Bus2=1_591 units=m Linecode=Line_MV_185 Length=1 
New Line.Feeder1.592 Bus1=1_591 Bus2=1_592 units=m Linecode=Line_MV_185 Length=1 
New Line.Feeder1.593 Bus1=1_592 Bus2=1_593 units=m Linecode=Line_MV_185 Length=1 
New Line.Feeder1.594 Bus1=1_593 Bus2=1_594 units=m Linecode=Line_MV_185 Length=1 
New Line.Feeder1.595 Bus1=1_594 Bus2=1_595 units=m Linecode=Line_MV_185 Length=1 
New Line.Feeder1.596 Bus1=1_595 Bus2=1_596 units=m Linecode=Line_MV_185 Length=1 
New Line.Feeder1.597 Bus1=1_596 Bus2=1_597 units=m Linecode=Line_MV_185 Length=1 
New Line.Feeder1.598 Bus1=1_597 Bus2=1_598 units=m Linecode=Line_MV_185 Length=1 
New Line.Feeder1.599 Bus1=1_598 Bus2=1_599 units=m Linecode=Line_MV_185 Length=1 
New Line.Feeder1.600 Bus1=1_599 Bus2=1_600 units=m Linecode=Line_MV_185 Length=1
New Line.Feeder1.601 Bus1=1_600 Bus2=1_601 units=m Linecode=Line_MV_185 Length=1
New Line.Feeder1.602 Bus1=1_601 Bus2=1_602 units=m Linecode=Line_MV_185 Length=1 
New Line.Feeder1.603 Bus1=1_602 Bus2=1_603 units=m Linecode=Line_MV_185 Length=1 
New Line.Feeder1.604 Bus1=1_603 Bus2=1_604 units=m Linecode=Line_MV_185 Length=1 
New Line.Feeder1.605 Bus1=1_604 Bus2=1_605 units=m Linecode=Line_MV_185 Length=1 
New Line.Feeder1.606 Bus1=1_605 Bus2=1_606 units=m Linecode=Line_MV_185 Length=1 
New Line.Feeder1.607 Bus1=1_606 Bus2=1_607 units=m Linecode=Line_MV_185 Length=1 
New Line.Feeder1.608 Bus1=1_607 Bus2=1_608 units=m Linecode=Line_MV_185 Length=1 
New Line.Feeder1.609 Bus1=1_608 Bus2=1_609 units=m Linecode=Line_MV_185 Length=1 
New Line.Feeder1_end Bus1=1_609 Bus2=1_610 units=m Linecode=Line_MV_185 Length=1


New Line.Lateral1_start_3 Bus1=1_609 Bus2=1_611 units=m Linecode=Line_MV_95 Length=1 
New Line.Lateral1.612 Bus1=1_611 Bus2=1_612 units=m Linecode=Line_MV_95 Length=1 
New Line.Lateral1.613 Bus1=1_612 Bus2=1_613 units=m Linecode=Line_MV_95 Length=1 
New Line.Lateral1.614 Bus1=1_613 Bus2=1_614 units=m Linecode=Line_MV_95 Length=1 
New Line.Lateral1.615 Bus1=1_614 Bus2=1_615 units=m Linecode=Line_MV_95 Length=1 
New Line.Lateral1.616 Bus1=1_615 Bus2=1_616 units=m Linecode=Line_MV_95 Length=1 
New Line.Lateral1.617 Bus1=1_616 Bus2=1_617 units=m Linecode=Line_MV_95 Length=1
New Line.Lateral1.618 Bus1=1_617 Bus2=1_618 units=m Linecode=Line_MV_95 Length=1 
New Line.Lateral1.619 Bus1=1_618 Bus2=1_619 units=m Linecode=Line_MV_95 Length=1 
New Line.Lateral1.620 Bus1=1_619 Bus2=1_620 units=m Linecode=Line_MV_95 Length=1 
New Line.Lateral1.621 Bus1=1_620 Bus2=1_621 units=m Linecode=Line_MV_95 Length=1 
New Line.Lateral1.622 Bus1=1_621 Bus2=1_622 units=m Linecode=Line_MV_95 Length=1 
New Line.Lateral1.623 Bus1=1_622 Bus2=1_623 units=m Linecode=Line_MV_95 Length=1 
New Line.Lateral1.624 Bus1=1_623 Bus2=1_624 units=m Linecode=Line_MV_95 Length=1

New Line.Lateral1.625 Bus1=1_624 Bus2=1_625 units=m Linecode=Line_MV_95 Length=1 
New Line.Lateral1.626 Bus1=1_625 Bus2=1_626 units=m Linecode=Line_MV_95 Length=1 
New Line.Lateral1.627 Bus1=1_626 Bus2=1_627 units=m Linecode=Line_MV_95 Length=1 
New Line.Lateral1.628 Bus1=1_627 Bus2=1_628 units=m Linecode=Line_MV_95 Length=1 
New Line.Lateral1.629 Bus1=1_628 Bus2=1_639 units=m Linecode=Line_MV_95 Length=1 
New Line.Lateral1.630 Bus1=1_629 Bus2=1_630 units=m Linecode=Line_MV_95 Length=1 
New Line.Lateral1.631 Bus1=1_630 Bus2=1_631 units=m Linecode=Line_MV_95 Length=1 
New Line.Lateral1.632 Bus1=1_631 Bus2=1_632 units=m Linecode=Line_MV_95 Length=1 
New Line.Lateral1.633 Bus1=1_632 Bus2=1_633 units=m Linecode=Line_MV_95 Length=1 
New Line.Lateral1.634 Bus1=1_633 Bus2=1_634 units=m Linecode=Line_MV_95 Length=1 
New Line.Lateral1.635 Bus1=1_634 Bus2=1_635 units=m Linecode=Line_MV_95 Length=1 
New Line.Lateral1.636 Bus1=1_635 Bus2=1_636 units=m Linecode=Line_MV_95 Length=1 
New Line.Lateral1.637 Bus1=1_636 Bus2=1_637 units=m Linecode=Line_MV_95 Length=1 
New Line.Lateral1.638 Bus1=1_637 Bus2=1_638 units=m Linecode=Line_MV_95 Length=1 
New Line.Lateral1.639 Bus1=1_638 Bus2=1_639 units=m Linecode=Line_MV_95 Length=1 
New Line.Lateral1.640 Bus1=1_639 Bus2=1_640 units=m Linecode=Line_MV_95 Length=1 
New Line.Lateral1.641 Bus1=1_640 Bus2=1_641 units=m Linecode=Line_MV_95 Length=1 
New Line.Lateral1.642 Bus1=1_641 Bus2=1_642 units=m Linecode=Line_MV_95 Length=1 
New Line.Lateral1.643 Bus1=1_642 Bus2=1_643 units=m Linecode=Line_MV_95 Length=1 
New Line.Lateral1.644 Bus1=1_643 Bus2=1_644 units=m Linecode=Line_MV_95 Length=1 
New Line.Lateral1.645 Bus1=1_644 Bus2=1_645 units=m Linecode=Line_MV_95 Length=1 
New Line.Lateral1.646 Bus1=1_645 Bus2=1_646 units=m Linecode=Line_MV_95 Length=1 
New Line.Lateral1.647 Bus1=1_646 Bus2=1_647 units=m Linecode=Line_MV_95 Length=1 
New Line.Lateral1.648 Bus1=1_647 Bus2=1_648 units=m Linecode=Line_MV_95 Length=1 
New Line.Lateral1.649 Bus1=1_648 Bus2=1_649 units=m Linecode=Line_MV_95 Length=1 
New Line.Lateral1.650 Bus1=1_649 Bus2=1_650 units=m Linecode=Line_MV_95 Length=1 
New Line.Lateral1.651 Bus1=1_650 Bus2=1_651 units=m Linecode=Line_MV_95 Length=1 
New Line.Lateral1.652 Bus1=1_651 Bus2=1_652 units=m Linecode=Line_MV_95 Length=1 
New Line.Lateral1.653 Bus1=1_652 Bus2=1_653 units=m Linecode=Line_MV_95 Length=1 
New Line.Lateral1.654 Bus1=1_653 Bus2=1_654 units=m Linecode=Line_MV_95 Length=1
New Line.Lateral1.655 Bus1=1_654 Bus2=1_655 units=m Linecode=Line_MV_95 Length=1 
New Line.Lateral1.656 Bus1=1_655 Bus2=1_656 units=m Linecode=Line_MV_95 Length=1 
New Line.Lateral1.657 Bus1=1_656 Bus2=1_657 units=m Linecode=Line_MV_95 Length=1
New Line.Lateral1.658 Bus1=1_657 Bus2=1_658 units=m Linecode=Line_MV_95 Length=1 
New Line.Lateral1.659 Bus1=1_658 Bus2=1_659 units=m Linecode=Line_MV_95 Length=1 
New Line.Lateral1.660 Bus1=1_659 Bus2=1_660 units=m Linecode=Line_MV_95 Length=1 
New Line.Lateral1.661 Bus1=1_660 Bus2=1_661 units=m Linecode=Line_MV_95 Length=1 
New Line.Lateral1.662 Bus1=1_661 Bus2=1_662 units=m Linecode=Line_MV_95 Length=1 
New Line.Lateral1.663 Bus1=1_662 Bus2=1_663 units=m Linecode=Line_MV_95 Length=1 
New Line.Lateral1.664 Bus1=1_663 Bus2=1_664 units=m Linecode=Line_MV_95 Length=1 
New Line.Lateral1.665 Bus1=1_664 Bus2=1_665 units=m Linecode=Line_MV_95 Length=1 
New Line.Lateral1.666 Bus1=1_665 Bus2=1_666 units=m Linecode=Line_MV_95 Length=1 
New Line.Lateral1.667 Bus1=1_666 Bus2=1_667 units=m Linecode=Line_MV_95 Length=1 
New Line.Lateral1.668 Bus1=1_667 Bus2=1_668 units=m Linecode=Line_MV_95 Length=1
New Line.Lateral1.669 Bus1=1_668 Bus2=1_669 units=m Linecode=Line_MV_95 Length=1 
New Line.Lateral1.670 Bus1=1_669 Bus2=1_670 units=m Linecode=Line_MV_95 Length=1 
New Line.Lateral1.671 Bus1=1_670 Bus2=1_671 units=m Linecode=Line_MV_95 Length=1 
New Line.Lateral1.672 Bus1=1_671 Bus2=1_672 units=m Linecode=Line_MV_95 Length=1 
New Line.Lateral1.673 Bus1=1_672 Bus2=1_673 units=m Linecode=Line_MV_95 Length=1 
New Line.Lateral1.674 Bus1=1_673 Bus2=1_674 units=m Linecode=Line_MV_95 Length=1 
New Line.Lateral1.675 Bus1=1_674 Bus2=1_675 units=m Linecode=Line_MV_95 Length=1 
New Line.Lateral1.676 Bus1=1_675 Bus2=1_676 units=m Linecode=Line_MV_95 Length=1 
New Line.Lateral1.677 Bus1=1_676 Bus2=1_677 units=m Linecode=Line_MV_95 Length=1
New Line.Lateral1.678 Bus1=1_677 Bus2=1_678 units=m Linecode=Line_MV_95 Length=1 
New Line.Lateral1.679 Bus1=1_678 Bus2=1_679 units=m Linecode=Line_MV_95 Length=1 
New Line.Lateral1.680 Bus1=1_679 Bus2=1_680 units=m Linecode=Line_MV_95 Length=1 
New Line.Lateral1.681 Bus1=1_680 Bus2=1_681 units=m Linecode=Line_MV_95 Length=1 
New Line.Lateral1.682 Bus1=1_681 Bus2=1_682 units=m Linecode=Line_MV_95 Length=1 
New Line.Lateral1.683 Bus1=1_682 Bus2=1_683 units=m Linecode=Line_MV_95 Length=1 
New Line.Lateral1.684 Bus1=1_683 Bus2=1_684 units=m Linecode=Line_MV_95 Length=1 
New Line.Lateral1.685 Bus1=1_684 Bus2=1_685 units=m Linecode=Line_MV_95 Length=1 
New Line.Lateral1.686 Bus1=1_685 Bus2=1_686 units=m Linecode=Line_MV_95 Length=1 
New Line.Lateral1.687 Bus1=1_686 Bus2=1_687 units=m Linecode=Line_MV_95 Length=1 
New Line.Lateral1.688 Bus1=1_687 Bus2=1_688 units=m Linecode=Line_MV_95 Length=1 
New Line.Lateral1.689 Bus1=1_688 Bus2=1_689 units=m Linecode=Line_MV_95 Length=1 
New Line.Lateral1.690 Bus1=1_689 Bus2=1_690 units=m Linecode=Line_MV_95 Length=1 
New Line.Lateral1.691 Bus1=1_690 Bus2=1_691 units=m Linecode=Line_MV_95 Length=1 
New Line.Lateral1.692 Bus1=1_691 Bus2=1_692 units=m Linecode=Line_MV_95 Length=1 
New Line.Lateral1.693 Bus1=1_692 Bus2=1_693 units=m Linecode=Line_MV_95 Length=1 
New Line.Lateral1.694 Bus1=1_693 Bus2=1_694 units=m Linecode=Line_MV_95 Length=1 
New Line.Lateral1.695 Bus1=1_694 Bus2=1_695 units=m Linecode=Line_MV_95 Length=1 
New Line.Lateral1.696 Bus1=1_695 Bus2=1_696 units=m Linecode=Line_MV_95 Length=1 
New Line.Lateral1.697 Bus1=1_696 Bus2=1_697 units=m Linecode=Line_MV_95 Length=1
New Line.Lateral1.698 Bus1=1_697 Bus2=1_698 units=m Linecode=Line_MV_95 Length=1 
New Line.Lateral1.699 Bus1=1_698 Bus2=1_699 units=m Linecode=Line_MV_95 Length=1 
New Line.Lateral1.700 Bus1=1_699 Bus2=1_700 units=m Linecode=Line_MV_95 Length=1 
New Line.Lateral1.701 Bus1=1_700 Bus2=1_701 units=m Linecode=Line_MV_95 Length=1 
New Line.Lateral1.702 Bus1=1_701 Bus2=1_702 units=m Linecode=Line_MV_95 Length=1 
New Line.Lateral1.703 Bus1=1_702 Bus2=1_703 units=m Linecode=Line_MV_95 Length=1 
New Line.Lateral1.704 Bus1=1_703 Bus2=1_704 units=m Linecode=Line_MV_95 Length=1 
New Line.Lateral1.705 Bus1=1_704 Bus2=1_705 units=m Linecode=Line_MV_95 Length=1 
New Line.Lateral1.706 Bus1=1_705 Bus2=1_706 units=m Linecode=Line_MV_95 Length=1 
New Line.Lateral1.707 Bus1=1_706 Bus2=1_707 units=m Linecode=Line_MV_95 Length=1 
New Line.Lateral1.708 Bus1=1_707 Bus2=1_708 units=m Linecode=Line_MV_95 Length=1 
New Line.Lateral1.709 Bus1=1_708 Bus2=1_709 units=m Linecode=Line_MV_95 Length=1 
New Line.Lateral1.710 Bus1=1_709 Bus2=1_710 units=m Linecode=Line_MV_95 Length=1 

New Line.Lateral1.711 Bus1=1_709 Bus2=1_711 units=m Linecode=Line_MV_95 Length=1 
New Line.Lateral1.712 Bus1=1_711 Bus2=1_712 units=m Linecode=Line_MV_95 Length=1 
New Line.Lateral1.713 Bus1=1_712 Bus2=1_713 units=m Linecode=Line_MV_95 Length=1 
New Line.Lateral1.714 Bus1=1_713 Bus2=1_714 units=m Linecode=Line_MV_95 Length=1 
New Line.Lateral1.715 Bus1=1_714 Bus2=1_715 units=m Linecode=Line_MV_95 Length=1 
New Line.Lateral1.716 Bus1=1_715 Bus2=1_716 units=m Linecode=Line_MV_95 Length=1 
New Line.Lateral1.717 Bus1=1_716 Bus2=1_717 units=m Linecode=Line_MV_95 Length=1
New Line.Lateral1.718 Bus1=1_717 Bus2=1_718 units=m Linecode=Line_MV_95 Length=1 
New Line.Lateral1.719 Bus1=1_718 Bus2=1_719 units=m Linecode=Line_MV_95 Length=1 
New Line.Lateral1.720 Bus1=1_719 Bus2=1_720 units=m Linecode=Line_MV_95 Length=1 
New Line.Lateral1.721 Bus1=1_720 Bus2=1_721 units=m Linecode=Line_MV_95 Length=1 
New Line.Lateral1.722 Bus1=1_721 Bus2=1_722 units=m Linecode=Line_MV_95 Length=1 
New Line.Lateral1.723 Bus1=1_722 Bus2=1_723 units=m Linecode=Line_MV_95 Length=1 
New Line.Lateral1.724 Bus1=1_723 Bus2=1_724 units=m Linecode=Line_MV_95 Length=1

New Line.Lateral1.725 Bus1=1_724 Bus2=1_725 units=m Linecode=Line_MV_95 Length=1 
New Line.Lateral1.726 Bus1=1_725 Bus2=1_726 units=m Linecode=Line_MV_95 Length=1 
New Line.Lateral1.727 Bus1=1_726 Bus2=1_727 units=m Linecode=Line_MV_95 Length=1 
New Line.Lateral1.728 Bus1=1_727 Bus2=1_728 units=m Linecode=Line_MV_95 Length=1 
New Line.Lateral1.729 Bus1=1_728 Bus2=1_739 units=m Linecode=Line_MV_95 Length=1 
New Line.Lateral1.730 Bus1=1_729 Bus2=1_730 units=m Linecode=Line_MV_95 Length=1 
New Line.Lateral1.731 Bus1=1_730 Bus2=1_731 units=m Linecode=Line_MV_95 Length=1 
New Line.Lateral1.732 Bus1=1_731 Bus2=1_732 units=m Linecode=Line_MV_95 Length=1 
New Line.Lateral1.733 Bus1=1_732 Bus2=1_733 units=m Linecode=Line_MV_95 Length=1 
...